  59
        -77.38519805
 C         -2.4296369805       -0.1729496203       -1.3007113004
 C         -1.1272954405        0.0812532904        0.7756898395
 C         -1.2290479104       -0.4205694099       -0.5603021404
 C         -0.1084594803       -1.1097818499       -1.1926642003
 C         -0.0966585203       -1.1872142901       -2.6954231303
 C          0.6846926100       -2.5476425093        0.7397905499
 C          2.1651105401       -2.8905563590        0.9394163499
 C          4.3739078299       -2.2039195288        0.2739650897
 C          3.0917987297       -0.8164845587        1.7344577495
 H         -0.3100760005       -0.2218411403       -3.1390361105
 H         -0.8823128502       -1.8652647203       -3.0230340202
 H          0.8672542197       -1.5488245200       -3.0491933103
 H          2.3120356702       -3.2468689388        1.9716498900
 H          2.4217626702       -3.7141072591        0.2650204201
 H          0.4020570399       -1.7102806893        1.3707987998
 H          1.0280746500       -2.7466809997       -1.2736019400
 H          0.0866878302       -3.4204337894        1.0309965301
 H          4.3243052400       -2.8534265690       -0.6001080101
 H          4.8774315700       -2.7485829485        1.0863113298
 H          4.9778747098       -1.3326674787        0.0219934796
 H          3.7006372896        0.0374312913        1.4399833993
 H          2.0909706397       -0.4641458188        1.9677925995
 H          3.5308707798       -1.2607128985        2.6396239696
 N          0.4216031799       -2.2345088897       -0.6469786701
 N          3.0385451699       -1.7643968589        0.6325949597
 O         -2.6483242405       -0.4760649305       -2.4689678904
 O         -0.0514918505        0.2783753807        1.3618601094
 N          1.3761933495        0.1568815005       -0.9127937406
 O         -2.2204089805        0.4148048503        1.4837631294
 C         -3.5256220206        0.5457066797       -0.5144154605
 C         -3.5171545205        0.1371647000        0.9504279095
 C         -3.8313034302       -1.3534713100        1.1135092698
 H         -4.8457423702       -1.5565123503        0.7821054699
 H         -3.1427586701       -1.9528503600        0.5220195199
 H         -3.7345935901       -1.6370996098        2.1589684399
 C         -4.4926262506        0.9791045400        1.7723436394
 H         -4.2379676308        2.0323836200        1.6882795392
 H         -5.5076569606        0.8278583797        1.4164383195
 H         -4.4332132105        0.6940423502        2.8192701395
 H         -4.4860380906        0.3240109994       -0.9795718905
 H         -3.3478553108        1.6225917797       -0.5953242008
 H          1.0662175095        0.3888453806        0.0426506493
 H          2.2254665396       -0.4014528194       -0.8359948105
 C          1.5134609592        1.3457090803       -1.7276324909
 H          0.5143477292        1.7570761001       -1.8880151009
 H          1.9253119193        1.0651319002       -2.7018705208
 C          2.4163536791        2.4042811806       -1.0850387611
 H          3.3855716092        1.9448429808       -0.8707763310
 C          1.8556518390        3.0137627808        0.2066135188
 H          2.5842574889        3.2040170705       -1.8101860813
 H          1.5839057192        2.2127577509        0.9007900190
 C          0.6075380989        3.8503990205       -0.0627404513
 C          2.9307259489        3.8744250311        0.8688928286
 H          2.5557083488        4.3064117112        1.7932998285
 H          3.2301490587        4.6858593810        0.2078450984
 H          3.8122845690        3.2813542013        1.1041844187
 H         -0.2072969110        3.2328066503       -0.4311080612
 H          0.8163136187        4.6269707904       -0.7965439015
 H          0.2724471288        4.3259831606        0.8557137386
